 Case_ID      ElastoDyn           ElastoDyn           ElastoDyn           ElastoDyn      Fst    Fst    HydroDyn  HydroDyn   HydroDyn   HydroDyn        HydroDyn                                                        InflowWind                                                                                                      InflowWind                                                      InflowWind        InflowWind      InflowWind   ServoDyn   ServoDyn   ServoDyn 
               BlPitch1            BlPitch2            BlPitch3            RotSpeed      TMax  TStart  WaveDir    WaveHs   WavePkShp  WaveSeed1         WaveTp                                                        FileName_BTS                                                                                                    Filename_Uni                                                   PropagationDir      RefLength        WindType   TPitManS1  TPitManS2  TPitManS3 
    0     3.865587460193798   3.865587460193798   3.865587460193798   4.999999999999999  45.0   5.0      0.0       1.1        0.0     304524126          8.52        /home/athulsun/WEIS/examples/06_IEA-15-240-RWT/openfast_runs/wind/weis_job_NTM_U3.000000_Seed1501552846.0.bts   /home/athulsun/WEIS/examples/06_IEA-15-240-RWT/openfast_runs/wind/weis_job_NTM_U3.000000_Seed1501552846.0.bts        0.0        241.93980926710415      3          9999       9999       9999   
    1     8.233143730109893   8.233143730109893   8.233143730109893    7.49924684467502  45.0   5.0      0.0      2.015       0.0     1192975140         7.45        /home/athulsun/WEIS/examples/06_IEA-15-240-RWT/openfast_runs/wind/weis_job_NTM_U13.000000_Seed488200390.0.bts   /home/athulsun/WEIS/examples/06_IEA-15-240-RWT/openfast_runs/wind/weis_job_NTM_U13.000000_Seed488200390.0.bts        0.0        241.93980926710415      3          9999       9999       9999   
    2     20.910818684720546  20.910818684720546  20.910818684720546   7.49924684467502  45.0   5.0      0.0      4.275       0.0     1668389755  9.219999999999999  /home/athulsun/WEIS/examples/06_IEA-15-240-RWT/openfast_runs/wind/weis_job_NTM_U23.000000_Seed1693606511.0.bts  /home/athulsun/WEIS/examples/06_IEA-15-240-RWT/openfast_runs/wind/weis_job_NTM_U23.000000_Seed1693606511.0.bts       0.0        241.93980926710415      3          9999       9999       9999   
    3      22.8647736074138    22.8647736074138    22.8647736074138    7.49924684467502  45.0   5.0      0.0       4.52       0.0     489172031          9.45        /home/athulsun/WEIS/examples/06_IEA-15-240-RWT/openfast_runs/wind/weis_job_NTM_U25.000000_Seed680233354.0.bts   /home/athulsun/WEIS/examples/06_IEA-15-240-RWT/openfast_runs/wind/weis_job_NTM_U25.000000_Seed680233354.0.bts        0.0        241.93980926710415      3          9999       9999       9999   
