 Case_ID      ElastoDyn           ElastoDyn           ElastoDyn           ElastoDyn       Fst    Fst    HydroDyn  HydroDyn   HydroDyn   HydroDyn  HydroDyn                                 InflowWind                                                                InflowWind                                   InflowWind        InflowWind      InflowWind 
               BlPitch1            BlPitch2            BlPitch3            RotSpeed       TMax  TStart  WaveDir    WaveHs   WavePkShp  WaveSeed1   WaveTp                                 FileName_BTS                                                              Filename_Uni                                PropagationDir      RefLength        WindType  
    0     12.921364366747772  12.921364366747772  12.921364366747772  7.499240932698764  800.0  100.0     0.0       8.0        0.0     304524126    2.0     /home/athulsun/F_DTQP/none/wind/none_NTM_U16.000000_Seed1501552846.0.bts  /home/athulsun/F_DTQP/none/wind/none_NTM_U16.000000_Seed1501552846.0.bts       0.0        241.93999999872892      3      
